Eval_TELEMACH - GLAVNI TRG - STARI PERON